<?xml version="1.0" encoding="UTF-8"?>
<routes xmlns:xsi="http://www.w3.org/2001/XMLSchema-instance" xsi:noNamespaceSchemaLocation="http://sumo.dlr.de/xsd/routes_file.xsd">

    <vType id="car" vClass="passenger" accel="2.6" decel="4.5" sigma="0.5" length="5" maxSpeed="33.33" lcStrategic="1.0" lcSpeedGain="1.0" lcKeepRight="0.5"/>
    <vType id="truck" vClass="truck" accel="1.5" decel="3.0" sigma="0.8" length="12" maxSpeed="27.78" lcStrategic="0.5" lcSpeedGain="0.3" lcKeepRight="0.8"/>
    <vType id="bus" vClass="bus" accel="1.2" decel="2.5" sigma="0.7" length="15" maxSpeed="27.78" lcStrategic="0.3" lcSpeedGain="0.2" lcKeepRight="1.0"/>
    <vType id="motorcycle" vClass="motorcycle" accel="3.0" decel="4.0" sigma="0.6" length="2.5" maxSpeed="22.22" lcStrategic="0.0" lcSpeedGain="0.0" lcKeepRight="1.0" lcPushy="0.0"/>

    <route id="route_E0" edges="E0"/>

    <flow id="flow_car" type="car" route="route_E0" begin="0" end="3600" vehsPerHour="2000" departLane="random" departSpeed="max"/>
    <flow id="flow_truck" type="truck" route="route_E0" begin="0" end="3600" vehsPerHour="1000" departLane="random" departSpeed="max"/>
    <flow id="flow_bus" type="bus" route="route_E0" begin="0" end="3600" vehsPerHour="500" departLane="random" departSpeed="max"/>
    <flow id="flow_motorcycle" type="motorcycle" route="route_E0" begin="0" end="3600" vehsPerHour="500" departLane="random" departSpeed="max"/>

</routes>