<?xml version="1.0" encoding="UTF-8"?>
<routes xmlns:xsi="http://www.w3.org/2001/XMLSchema-instance" xsi:noNamespaceSchemaLocation="http://sumo.dlr.de/xsd/routes_file.xsd">

    <!-- 定义小轿车类型（可变道） -->
    <vType id="car" vClass="passenger" accel="2.6" decel="4.5" sigma="0.5" length="5" maxSpeed="33.33" lcStrategic="1.0" lcSpeedGain="1.0" lcKeepRight="0.5"/>

    <!-- 定义货车类型（缓慢变道） -->
    <vType id="truck" vClass="truck" accel="1.5" decel="3.0" sigma="0.8" length="12" maxSpeed="27.78" lcStrategic="0.5" lcSpeedGain="0.3" lcKeepRight="0.8"/>

    <!-- 定义公交车类型（偶尔变道） -->
    <vType id="bus" vClass="bus" accel="1.2" decel="2.5" sigma="0.7" length="15" maxSpeed="27.78" lcStrategic="0.3" lcSpeedGain="0.2" lcKeepRight="1.0"/>

    <!-- 定义摩托车类型（禁止变道） -->
    <vType id="motorcycle" vClass="motorcycle" accel="3.0" decel="4.0" sigma="0.6" length="2.5" maxSpeed="22.22" lcStrategic="0.0" lcSpeedGain="0.0" lcKeepRight="1.0" lcPushy="0.0"/>
    
    <!-- 定义基础路线 -->
    <route id="route_E0" edges="E0"/>

    <!-- 创建车流（不同类型车辆），降低period以加大流量 -->
    <flow id="flow_car" type="car" route="route_E0" begin="0" end="3600" period="2" departLane="random" departSpeed="max"/>
    <flow id="flow_truck" type="truck" route="route_E0" begin="0" end="3600" period="3" departLane="random" departSpeed="max"/>
    <flow id="flow_bus" type="bus" route="route_E0" begin="0" end="3600" period="5" departLane="random" departSpeed="max"/>
    <flow id="flow_motorcycle" type="motorcycle" route="route_E0" begin="0" end="3600" period="4" departLane="2" departSpeed="max"/>
</routes>
