<?xml version="1.0" encoding="UTF-8"?>

<!-- generated on 2025-01-23 19:59:35 by Eclipse SUMO sumo Version 1.20.0
-->

<configuration xmlns:xsi="http://www.w3.org/2001/XMLSchema-instance" xsi:noNamespaceSchemaLocation="http://sumo.dlr.de/xsd/sumoConfiguration.xsd">

    <input>
        <net-file value="a.net.xml"/>
        <route-files value="a.rou.xml"/>
    </input>

</configuration>
