<?xml version="1.0" encoding="UTF-8"?>
<net version="1.20" junctionCornerDetail="5" limitTurnSpeed="5.50" xmlns:xsi="http://www.w3.org/2001/XMLSchema-instance" xsi:noNamespaceSchemaLocation="http://sumo.dlr.de/xsd/net_file.xsd">

    <location netOffset="0.00,0.00" convBoundary="-28.77,58.24,185.46,58.41" origBoundary="10000000000.00,10000000000.00,-10000000000.00,-10000000000.00" projParameter="!"/>

    <edge id="E0" from="J0" to="J1" priority="-1">
        <!-- 最左侧车道（最高速120 km/h），允许所有车辆类型 -->
        <lane id="E0_0" index="0" allow="passenger" speed="33.33" length="2000" shape="-28.76,50.24 185.47,50.58"/>
        <!-- 第二车道（最高速100 km/h），允许所有车辆类型 -->
        <lane id="E0_1" index="1" allow="passenger" speed="27.78" length="2000" shape="-28.77,53.44 185.47,53.78"/>
        <!-- 第三车道（最高速80 km/h），允许所有车辆类型 -->
        <lane id="E0_2" index="2" allow="passenger" speed="22.22" length="2000" shape="-28.77,56.64 185.46,56.98"/>
        <!-- 最右侧车道（最高速60 km/h），允许所有车辆类型 -->
        <lane id="E0_3" index="3" allow="passenger" speed="16.67" length="2000" shape="-28.77,59.84 185.46,60.18"/>
    </edge>

    <junction id="J0" type="dead_end" x="-28.77" y="58.24" incLanes="" intLanes="" shape="-28.77,61.44 -28.76,48.64"/>
    <junction id="J1" type="dead_end" x="185.46" y="58.41" incLanes="E0_0 E0_1 E0_2 E0_3" intLanes="" shape="185.48,48.98 185.46,61.78"/>

</net>